data/case85/reduced/78pct/case85_reduced.m
%% case85_reduced -- Opti-KRON reduction of case85
%
%   85 buses reduced to 19 super-nodes (77.6% reduction), 18 branches.
%   Loads are scenario 1 of 1.
%
%   Equivalent branches come from the Kron-reduced admittance matrix, so a
%   negative resistance is possible and is not an error -- an equivalent
%   branch stands in for eliminated network, not for a conductor.
%
%   Bus map -- each super-node and the original buses it represents:
%     1 <- 1 2 16
%     3 <- 3 17
%     4 <- 4
%     5 <- 5 18 19 23
%     6 <- 6
%     7 <- 7 24
%     8 <- 8
%     9 <- 9 10 57 78
%     11 <- 11 12 13 14 15 80 81 82 83 84 85
%     20 <- 20 21 22
%     25 <- 25 26 37
%     27 <- 27 28 38
%     29 <- 29 39
%     30 <- 30 31 32 33 40 41 42 43
%     34 <- 34 35 36 44 45 46 47
%     48 <- 48 49 50 51 52 53 54 55 56
%     58 <- 58 59 60 61 62 63
%     64 <- 64 65 66 67 72 77 79
%     68 <- 68 69 70 71 73 74 75 76

function mpc = case85_reduced
mpc.version = '2';
mpc.baseMVA = 1;

%% bus data
%	bus_i	type	Pd	Qd	Gs	Bs	area	Vm	Va	baseKV	zone	Vmax	Vmin
mpc.bus = [
	1	3	0.035279999999999999	0.035992800000000005	-1.1368683772161603e-13	5.6843418860808015e-14	1	1	0	1	1	1.1	0.9;
	3	1	0.112	0.1142629	6.9142831385922178e-13	4.4410253109870611e-13	1	1	0	1	1	1.1	0.9;
	4	1	0.056000000000000001	0.057131399999999999	-1.1368683772161603e-13	0	1	1	0	1	1	1.1	0.9;
	5	1	0.16800000000000001	0.1713942	-1.727619130714794e-13	-4.4721513678188122e-13	1	1	0	1	1	1.1	0.9;
	6	1	0.035279999999999999	0.035992800000000005	0	-2.8421709430404007e-14	1	1	0	1	1	1.1	0.9;
	7	1	0.035279999999999999	0.035992800000000005	-3.4593699766066908e-13	3.6344592054646827e-13	1	1	0	1	1	1.1	0.9;
	8	1	0.035279999999999999	0.035992800000000005	-8.5265128291212022e-14	0	1	1	0	1	1	1.1	0.9;
	9	1	0.112	0.1142628	6.4444302972355376e-14	1.470665515351163e-12	1	1	0	1	1	1.1	0.9;
	11	1	0.32311999999999996	0.32964830000000001	5.9260490526874268e-13	1.7069661687139615e-12	1	1	0	1	1	1.1	0.9;
	20	1	0.10583999999999999	0.10797840000000002	-2.9424939241560983e-13	4.228315005742835e-13	1	1	0	1	1	1.1	0.9;
	25	1	0.14727999999999999	0.15025559999999999	1.5527566258169811e-13	7.8675902589903929e-14	1	1	0	1	1	1.1	0.9;
	27	1	0.112	0.1142628	-9.9170261488035506e-14	2.2926229696961485e-14	1	1	0	1	1	1.1	0.9;
	29	1	0.056000000000000001	0.057131399999999999	-5.9276105812137203e-13	-1.1620227804033743e-13	1	1	0	1	1	1.1	0.9;
	30	1	0.19040000000000001	0.1942469	7.7489490634284441e-14	-3.9036398780853291e-13	1	1	0	1	1	1.1	0.9;
	34	1	0.15512000000000001	0.15825410000000001	-3.8011001037817907e-15	-2.4265819590842468e-13	1	1	0	1	1	1.1	0.9;
	48	1	0.25356000000000001	0.25868289999999999	1.0045122068567202e-12	-8.5163999256528177e-13	1	1	0	1	1	1.1	0.9;
	58	1	0.18200000000000002	0.18567709999999998	-2.1990137934927637e-14	-4.2938083728549366e-13	1	1	0	1	1	1.1	0.9;
	64	1	0.16128000000000001	0.16453849999999998	1.1084466677857563e-12	-1.2398970739013748e-12	1	1	0	1	1	1.1	0.9;
	68	1	0.23855999999999999	0.24337979999999998	4.8316906031686813e-13	5.6843418860808015e-14	1	1	0	1	1	1.1	0.9;
];

%% generator data
%	bus	Pg	Qg	Qmax	Qmin	Vg	mBase	status	Pmax	Pmin
mpc.gen = [
	1	0	0	9999	-9999	1	1	1	9999	-9999;
];

%% branch data
%	fbus	tbus	r	x	b	rateA	rateB	rateC	ratio	angle	status	angmin	angmax
mpc.branch = [
	1	3	0.0022396694214876028	0.001545454545454545	0	0	0	0	0	0	1	-360	360;
	3	4	0.0017933884297520661	0.0012314049586776858	0	0	0	0	0	0	1	-360	360;
	4	5	0.00089256198347107448	0.00061157024793388433	0	0	0	0	0	0	1	-360	360;
	5	6	0.0035950413223140489	0.0024628099173553712	0	0	0	0	0	0	1	-360	360;
	5	20	0.015801652892561996	0.0065537190082644598	0	0	0	0	0	0	1	-360	360;
	6	7	0.0022479338842975208	0.001537190082644628	0	0	0	0	0	0	1	-360	360;
	7	8	0.0098925619834710748	0.0067768595041322313	0	0	0	0	0	0	1	-360	360;
	8	9	0.00089256198347107448	0.00061157024793388433	0	0	0	0	0	0	1	-360	360;
	8	25	0.0037603305785123965	0.0015619834710743801	0	0	0	0	0	0	1	-360	360;
	9	11	0.0094380165289255549	0.0064710743801653318	0	0	0	0	0	0	1	-360	360;
	9	58	0.0090247933884297343	0.0037438016528925501	0	0	0	0	0	0	1	-360	360;
	25	27	0.0075206611570247869	0.0031157024793388387	0	0	0	0	0	0	1	-360	360;
	27	29	0.0067685950413223124	0.0028016528925619787	0	0	0	0	0	0	1	-360	360;
	29	30	0.0045123966942148767	0.0018677685950413202	0	0	0	0	0	0	1	-360	360;
	30	34	0.012033057851239674	0.0049834710743801381	0	0	0	0	0	0	1	-360	360;
	34	48	0.010528925619834735	0.0043636363636363759	0	0	0	0	0	0	1	-360	360;
	58	64	0.012033057851239563	0.0049834710743801632	0	0	0	0	0	0	1	-360	360;
	64	68	0.011280991735537239	0.0046859504132231184	0	0	0	0	0	0	1	-360	360;
];
